**$ENCRYPTED_LIB
**$INTERFACE
*$
* TPS56A37
*****************************************************************************
* (C) Copyright 2023 Texas Instruments Incorporated. All rights reserved.                                            
*****************************************************************************
** This model is designed as an aid for customers of Texas Instruments.
** TI and its licensors and suppliers make no warranties, either expressed
** or implied, with respect to this model, including the warranties of 
** merchantability or fitness for a particular purpose.  The model is
** provided solely on an "as is" basis.  The entire risk as to its quality
** and performance is with the customer
*****************************************************************************
*
* This model is subject to change without notice. Texas Instruments
* Incorporated is not responsible for updating this model.
*
*****************************************************************************
*
** Released by: Texas Instruments Inc.
* Part: TPS56A37
* Date: 20Nov2023
* Model Type: TRANSIENT
* Simulator: PSPICE
* Simulator Version: 17.4-2019 S015
* EVM Order Number: TPS56A37EVM
* EVM Users Guide: SLVUCT3 – Dec 2023
* Datasheet: SLVSHC9 – Jan 2024
* Topologies Supported: Buck
*
* Model Version: Final 1.0
*
* Model Usage Notes:
* A. Features have been modelled
*
*	1. Line transient, Load transient
*	2. EN on/off
*	3. Soft-start time
*       4. Overcurrent Protection(OCP)
*	5. OVP Protection 
*	6. PGood indication
*
* B. Features have not been modelled
*
*	1. Operating Quiescent Current
*       2. Shutdown Current 
*       3. Temperature dependent characteristics
*       4. UVP Protection    
*
* C. Application Notes
*
*   1. The parameter STEADY_STATE has been used to reach the steady state faster
*      Keep STEADY_STATE = 0 to observe startup behaviour. 
*      Keep STEADY_STATE = 1 and appropriate IC on Inductor and capacitor to observe for faster Steady state. 
*   2. When running with parameter STEADY_STATE=1, use the initial conditions for SS cap.
*   3. Ground Pins have been tied to 0V internally and hence model does not support Inverting topologies. 
*
*****************************************************************************	

.subckt TPS56A37_PSPICE VIN BOOT EN SW SS PG MODE FB AGND PGND
$CDNENCSTART_ADV2
17f62b1fb318c25603aeb85644ae98a5d179ef807807791f6459efacb9d7ffc37a831b146dc0f06bb1ef275619162e6d8f7ad0dc708bf15ae1a1d5bd0ae623b2
ef08c4d04fad3dee0e9757a1ea3131f9b6bbcf24390e1c0a81c14b5ce16e0303a6e56a5b6eba7803c7eff22334a9c9ccad68539184da2ebb827b6c0c32cd4de4
3a48d899b0f8c2f84760c05f943b57625c15fca3a295643e91e6b2ff4793f5224cc5a0ad9f7809d3fd152df0efef3d691d97ea66ce5246262e0e9ab6cd7a1435
26645fc0e045d45b1283b8a49f7a90bf6175797968a80d5ce6ed7bac6f67a34522a6fd6685663bc5023a68f50508f8739a3e07d9e7e4410630e068542b400057
50e641b00b8a7192398469b4c5ebeefadf67a4409e8ade8a665c16b519eab5176592a82e02fad598be0eebe06348076bca906f8d10dc07dd94e6bedac8917e9f
69f401f8ba6b04fe5a7fc7d9bd471d59fc02383ec94750c9aacf9802ff2c20088e923bec074fb4f750b47100f532677ee6c251b859ac4f5e9f7661d5ff3cd6b4
4e103c50717544ac33d8791e4cf430a16390c835a1b8f284e1a0b9531ab2626f22a6fd6685663bc5023a68f50508f8739a3e07d9e7e4410630e068542b400057
f3bd61ef0aa659e94ea43ce0d875da466390c835a1b8f284e1a0b9531ab2626f22a6fd6685663bc5023a68f50508f8739a3e07d9e7e4410630e068542b400057
8d3f48b6a3ec5fd01cc88cdb0d8b0c3e6390c835a1b8f284e1a0b9531ab2626f22a6fd6685663bc5023a68f50508f8739a3e07d9e7e4410630e068542b400057
fa0cda0894fa7384e75ed9396f789a9edf67a4409e8ade8a665c16b519eab5176592a82e02fad598be0eebe06348076bca906f8d10dc07dd94e6bedac8917e9f
b02f9544de082df5ce23227b92391ebb6175797968a80d5ce6ed7bac6f67a34522a6fd6685663bc5023a68f50508f8739a3e07d9e7e4410630e068542b400057
e7f0854a1ef0e9615dfc3a091a527c382b5144014c6fdd7a7afe5227af17d0d169bb6b9ee374ef0e7be2be4e1b1fc3ea5c2f385a9a2998f6d69d83b5ddf32a7f
ecbb4da56bba67ad47becdfff41805f13766fb11d44fa3bf97dcd88cbcb43262a6e56a5b6eba7803c7eff22334a9c9ccad68539184da2ebb827b6c0c32cd4de4
4dd43b1359454e18e2d67d6d2196150e3766fb11d44fa3bf97dcd88cbcb43262a6e56a5b6eba7803c7eff22334a9c9ccad68539184da2ebb827b6c0c32cd4de4
aa6a8fcc5b5cb5ba9e5b3256bcf03ac39efd9aaf0bcdf521d25a2495a1a69f94ed686996632c518d05fe75565266f04149ddd68699e23d5fdf100088048ac524
aa99cd03790ebaa53c5d81a63ec262339efd9aaf0bcdf521d25a2495a1a69f94ed686996632c518d05fe75565266f04149ddd68699e23d5fdf100088048ac524
7415ea82d39f776c6718f70482a381d32898540560e72d6fbfba48323cfc202c6592a82e02fad598be0eebe06348076bca906f8d10dc07dd94e6bedac8917e9f
8d75be9ba2b72cd414ce7e96c1aabe5acc8e5cd12e7fab871a641a82ed5e35e38e923bec074fb4f750b47100f532677ee6c251b859ac4f5e9f7661d5ff3cd6b4
a7e92d705a5fa2752365c55d8c168472026d89d6320a2582f5ae5cdcfce8ae116592a82e02fad598be0eebe06348076bca906f8d10dc07dd94e6bedac8917e9f
b2217ff0b90207def0153afb24048255ffce45fd1dee957e792e1c085a62ace1f39d68a7136bc0b23ec6c0cfe2e5579ed01d7c40a7152bbe15ad89b5c097a0b9
412330bcc512d67ab12aa15d31abd22a1b35b3cd6d2d3a05966f2d9774b968eb008a7a18ebce311dd7cd5d88b4d83ffd498314db34a4c83b97dbc7007ef97caf
dfa22f9e872dcf7848216452b7e2f505c6c8cf58bb6103e00cb90021fc8dd304f719094ed2984eb73364a1921480ea070a3055ccd8c9af496b38da83614e0504
9f00835d86a648ccf9e5c7dad8965f86011f0e8870a73129a668365da41b5af3b3eeab246cdd19909cd9f7c13dad60975bb66f7810cce1300d4cb562c91c67c2
23aecec3e17b4da370702f65b4d0f7a24ad9cb9e523de4a7ee7665e06a52b254a6e56a5b6eba7803c7eff22334a9c9ccad68539184da2ebb827b6c0c32cd4de4
29c81f6558da4a654ebba42d6e57409d28cbc4d14f6e25ffc4909df6db1aabc48e923bec074fb4f750b47100f532677ee6c251b859ac4f5e9f7661d5ff3cd6b4
f34c75aa35dbb08a9b8d543638eaaabf026d89d6320a2582f5ae5cdcfce8ae116592a82e02fad598be0eebe06348076bca906f8d10dc07dd94e6bedac8917e9f
27111d506cdda52a8b51fbc0a7e72ef9c3f2e9b7aa142334cefa17c6b11c25de74427a15457e0acd1ad40d3b3e28cd2fe678ea99fea61ae0b1605351a80e133a
b13499aec0315a9f4e0b67032aad4a2706cba3dd0aa670275bf3f1f9ee3f701a8e923bec074fb4f750b47100f532677ee6c251b859ac4f5e9f7661d5ff3cd6b4
d6f1d54c44b393b5cc9fb4cda15cde9c212162ca8b8e19f4a5fb964338ddb17069bb6b9ee374ef0e7be2be4e1b1fc3ea5c2f385a9a2998f6d69d83b5ddf32a7f
fb42375c0435ef6271c980c0dd22892ba315de8f6866a99840fc202527bc3ae7a6e56a5b6eba7803c7eff22334a9c9ccad68539184da2ebb827b6c0c32cd4de4
4393c2bf857784d067c3d6e061f78f02cc416b2122495573508552da82bb8b6322a6fd6685663bc5023a68f50508f8739a3e07d9e7e4410630e068542b400057
fc66827214e11bd1d2e99d96f7054f97a5f3217fba17a20fdb158728df46a129e977a1beb8492176221591d5a067b775d29a69e1ec274e48dc96444b04722c81
0653b0f3773f193df04db37c75f78fc1aaef6ec124512179442858e3625551b6e95ce24ef0d5ac3372ba4c25ed99dd9f93f3858441d7a9fdf451535ea1ad3abe
cf8c0bea24e112c90bb896150297f690d93971a28576b4836ce10841daf6edb18e923bec074fb4f750b47100f532677ee6c251b859ac4f5e9f7661d5ff3cd6b4
549ab1e6ffafe8371c1fcccd4cd4d036c3241357b27d0563b8a18d133d14510a8e923bec074fb4f750b47100f532677ee6c251b859ac4f5e9f7661d5ff3cd6b4
9d043b108a14fc748caf71ddec855dbef406962767be75fd5b04e57528913cd58e923bec074fb4f750b47100f532677ee6c251b859ac4f5e9f7661d5ff3cd6b4
42860b615729862467d269738b35732ee43137ae5cb65a475b39f894ccba19ae8e923bec074fb4f750b47100f532677ee6c251b859ac4f5e9f7661d5ff3cd6b4
6f24e0cfd658fc2c88fd9f7841e45442a6881db73edd7d9448c61c57570cf5a174427a15457e0acd1ad40d3b3e28cd2fe678ea99fea61ae0b1605351a80e133a
64066b9313092c3e25000c86369150daaaef6ec124512179442858e3625551b6e95ce24ef0d5ac3372ba4c25ed99dd9f93f3858441d7a9fdf451535ea1ad3abe
395389e2745ab351011a659357ca2ec9d0a59b0a85a915d2e73e0e4d20336ad76a34019bb4d0d29490208d9f7a27081f4f5a4b560435c63190d19da6c297937b
1bdfbef80c268f34a91dbbb5ce202edfaaef6ec124512179442858e3625551b6e95ce24ef0d5ac3372ba4c25ed99dd9f93f3858441d7a9fdf451535ea1ad3abe
fc8d0e3f04c424d95bed15727418f4e2aaef6ec124512179442858e3625551b6e95ce24ef0d5ac3372ba4c25ed99dd9f93f3858441d7a9fdf451535ea1ad3abe
f62023f557bafa9cd8c838d91e91351a81c646f9b64c3616df428a0587675dc46592a82e02fad598be0eebe06348076bca906f8d10dc07dd94e6bedac8917e9f
fb961f02f7474a8feb5cfb03208abcab7719d2e9a6cd1f61d058cc35df7621cd8e923bec074fb4f750b47100f532677ee6c251b859ac4f5e9f7661d5ff3cd6b4
23a8ee4ec1985d8725b9adb586e74b5041fa765cbc0a463c68e1a7079b4c284ea28d38715188870afeb1360d3e62d0e90be9cbed090770218c8ce21881c94fe9
a03a17a50f54cfab9ef5b56f9a8173d8da62eae4c719e6f88856012622875f98a5f3217fba17a20fdb158728df46a1292f1b6c6746ad054f3eb5cada7339d722
36410f6aecc4a0fd3b84194920de51d502fea5f9d2f22269585a83b518a4ce7922a6fd6685663bc5023a68f50508f8739a3e07d9e7e4410630e068542b400057
df48530b2e1cc687866205b61a4927cfe9ea050659d82dd8a1495b90cf3fb22c8e923bec074fb4f750b47100f532677ee6c251b859ac4f5e9f7661d5ff3cd6b4
ddb061427c49799ebd1359f7ec8fec9af7aae16b17e11d8f4746e141d9643cbefff608ce09a96f3138047cd2885942aeb8f0c90e2b93f36f8f54d6a7661d571e
877d730fe501e267c681adaaf1866284bcd835e68e7cbc7440a5354e02961c628e923bec074fb4f750b47100f532677ee6c251b859ac4f5e9f7661d5ff3cd6b4
55e71827fdb62dcb9c09bb97572510325db15e0588d63953289b7ba1cef36ceb9d6d53670646cf5c0b137da2ca4d72a62add1e04f755c1b949c71f3d675275bb
247c88317267e9252f31d1f2180e012ef3ddc63911cacdfc509ccf119d91a99ffff608ce09a96f3138047cd2885942aeb8f0c90e2b93f36f8f54d6a7661d571e
4f9506ff54df10e865c7f8414dd3d6a75db15e0588d63953289b7ba1cef36ceb9d6d53670646cf5c0b137da2ca4d72a62add1e04f755c1b949c71f3d675275bb
96135e7137c3762aa5f1ba8c8ea01387d0a59b0a85a915d2e73e0e4d20336ad76a34019bb4d0d29490208d9f7a27081f4f5a4b560435c63190d19da6c297937b
c306b959126a70b8467ee78790317203aaef6ec124512179442858e3625551b6e95ce24ef0d5ac3372ba4c25ed99dd9f93f3858441d7a9fdf451535ea1ad3abe
9aaad71f0c192e68362350afc81fcd897f506e63e018325e2044d890a7a38fa29d6d53670646cf5c0b137da2ca4d72a62add1e04f755c1b949c71f3d675275bb
d66f6203183ee74ebbbede4fac1a04073b9718ffacec280a28dcfcb9827393d8fff608ce09a96f3138047cd2885942aeb8f0c90e2b93f36f8f54d6a7661d571e
102c22f81c35f570e3208558a3e0537d5bebb4abe9d2ffa3ecb29f1947353a889d6d53670646cf5c0b137da2ca4d72a62add1e04f755c1b949c71f3d675275bb
2f86b2fb875618da055785d4ab6e7fc772b666e7639f3f449440d9034c2d04a1ed686996632c518d05fe75565266f04149ddd68699e23d5fdf100088048ac524
65faa74b1ad1bdff32baa8f0674383e93b9718ffacec280a28dcfcb9827393d8fff608ce09a96f3138047cd2885942aeb8f0c90e2b93f36f8f54d6a7661d571e
25aa67587b7e3ad2c9b533152c81ce92ceeb3981e65b1b645b87a606dbbb56aa9d6d53670646cf5c0b137da2ca4d72a62add1e04f755c1b949c71f3d675275bb
1234bf37012f5af02f954ae87121944d5bebb4abe9d2ffa3ecb29f1947353a889d6d53670646cf5c0b137da2ca4d72a62add1e04f755c1b949c71f3d675275bb
bd22484e81f9de755deb25e477ce091022e654da7c730ed8a3760ba4e6ac5eb34cc5a0ad9f7809d3fd152df0efef3d691d97ea66ce5246262e0e9ab6cd7a1435
aa6e67a1b71330493514da5e704e3c3a22e654da7c730ed8a3760ba4e6ac5eb34cc5a0ad9f7809d3fd152df0efef3d691d97ea66ce5246262e0e9ab6cd7a1435
d3d6b15344ddd95a3de85b210e3bb3470cedb800ff8a6fff5e763fc2ce6a66389d6d53670646cf5c0b137da2ca4d72a62add1e04f755c1b949c71f3d675275bb
55eb55ffc0413b6c4d4b09c35675c6af0e660d9627bcd1ce4b2af416cfac5a049c53f422c71f11175fe7528adce1f6d6de128ed7a895c0e3fad0092f7f713d56
436d086b9e69d4f0f09acb4d0b66032e7afdb2d48f9b849f5fda391a509778814cc5a0ad9f7809d3fd152df0efef3d691d97ea66ce5246262e0e9ab6cd7a1435
baeb8b60cb73e4e3f36e542ee8b312a97650106bbaffc529bebf3869a08026c14cc5a0ad9f7809d3fd152df0efef3d691d97ea66ce5246262e0e9ab6cd7a1435
c038e56bc99aace1c37493548a6bf0cd7623c83f0af146f42fb28a757a5e4c1bfff608ce09a96f3138047cd2885942aeb8f0c90e2b93f36f8f54d6a7661d571e
b722db057c6dcca51827ea325d3dee5e3b9718ffacec280a28dcfcb9827393d8fff608ce09a96f3138047cd2885942aeb8f0c90e2b93f36f8f54d6a7661d571e
a7619a441ab0863b8845088ea80e2f6122e654da7c730ed8a3760ba4e6ac5eb34cc5a0ad9f7809d3fd152df0efef3d691d97ea66ce5246262e0e9ab6cd7a1435
685a2c5f097d978fdff441e6fd61d9927f506e63e018325e2044d890a7a38fa29d6d53670646cf5c0b137da2ca4d72a62add1e04f755c1b949c71f3d675275bb
77318fc2e559aa05f799fdbdeb7e7f924252966eff3866045844527cf09c68815919def486a2f861a8845b3624387e2e216730a788759848b8575555786c536f
4f40bc9a0008bc6ff2c645645814ad4338f1fe869ea9ebd1f0ae365fa2011b52915e194a6e7710d6db70b166fa35f8dd200d6d5ffc28c166aa693097f06b49c5
c30f78e7ba30c131f86d43ce214e95ab74427a15457e0acd1ad40d3b3e28cd2fcb161629a396cef098b781763f64cb7f85aaace8838a89c71766956ea31d844e
55d452bdeaad4f2d87a8b3b37125a4cc6c9cfc8c43eaf71ffa022309086abd68e4b1f018dad504a3a21a72b65e0dff248a5f36a667e0958ae6be020b6940410e
4f40bc9a0008bc6ff2c645645814ad43c0c801c380cd0a71ce3ecd7eb44ac2d5153afabf42e2508eeeb0b7a6a6b86e6d30af61f0138e3ddad87d1338223da96b
61dcf9793dbde0f2206fa19cb6940fa769bb6b9ee374ef0e7be2be4e1b1fc3ea89c1c62f2367d85b9e71c0cb5ef27eaef185e89738591f370fb230980fb0de95
eaf91730d6eb97b1aaa487e891916724e12291ff68190c3f791c4eaad75b0c065919def486a2f861a8845b3624387e2ef57a0c6f62828292ac782bace52aad67
4f40bc9a0008bc6ff2c645645814ad43fbc146bbd8c7709f893e653873e404e5153afabf42e2508eeeb0b7a6a6b86e6daf841bda901ac37b5972ed2697dae76f
3a3b47eb0f43a9bef05fae269c2ac1a622a6fd6685663bc5023a68f50508f87384b9ff2aacd2d5ffc773c3644904e672a1fffcb69781fb6b756049d89ff95ce6
b38dcdee5d877d1a7a58b7669d2a97636c9cfc8c43eaf71ffa022309086abd682053e60d7647caeb28973cf3b68760468a5f36a667e0958ae6be020b6940410e
4f40bc9a0008bc6ff2c645645814ad43bd1a798fec061608b6f81340aa58ac6e153afabf42e2508eeeb0b7a6a6b86e6d30af61f0138e3ddad87d1338223da96b
61dcf9793dbde0f2206fa19cb6940fa769bb6b9ee374ef0e7be2be4e1b1fc3ea89c1c62f2367d85b9e71c0cb5ef27eaef185e89738591f370fb230980fb0de95
a523ec07e82b0d37c249aa4d3dabe32d1ee8046df4fb7e04377702a0a9546101251af472a9651c9e8203642c4a90ee6a106a18517a3c4ee104c9efecc9a34bb3
4f40bc9a0008bc6ff2c645645814ad43fb93b551dae4702a81e9786a0833bf1720e60ee0b594950bea7f3f8842a2b5f9aca1495eace5a42ff90654bf0cc3c796
a926f2e326fcd75aba99f8390c5ea7bfa5f3217fba17a20fdb158728df46a129e977a1beb8492176221591d5a067b775d29a69e1ec274e48dc96444b04722c81
7ef4f71089f8eb76542e1541af246763becca07124169075965b5fd390a6aa83fc872587be958f786eb76a4e88d41d3b106a18517a3c4ee104c9efecc9a34bb3
4f40bc9a0008bc6ff2c645645814ad43304b869a9aff372b15a68a7ec2600c5920e60ee0b594950bea7f3f8842a2b5f9b47bf41f8936c005e2c4836f8427ca16
76c878c59173112f03616b04da76433f22a6fd6685663bc5023a68f50508f87384b9ff2aacd2d5ffc773c3644904e672a1fffcb69781fb6b756049d89ff95ce6
c10b02db502f021c285c32650cde317e697bc131df13b6e5868ce0964e5a92dd25aa6f665aff44f72b67168be4d496bbf9233355ed21e5f079c5f0bc38778225
4f40bc9a0008bc6ff2c645645814ad435688023da0c229ad6a86e9f6fdfe28a6beda4a80ccdeb468d9093d5cbd568f96dabb01f0bfba6ff0cd03117045e99699
b5eb77929ba72bf1f50c7fc9d727eaa7a5f3217fba17a20fdb158728df46a129e977a1beb8492176221591d5a067b775d29a69e1ec274e48dc96444b04722c81
b52679ffb9afd830d48a6fec1e12e717fa59bd1f102fdb38c5bfafa3bf711a015919def486a2f861a8845b3624387e2ea553b07989f9bc0c4304f57b1340a4ff
4f40bc9a0008bc6ff2c645645814ad43b0b807df2827f15c55a7e8c921f61adb153afabf42e2508eeeb0b7a6a6b86e6daf841bda901ac37b5972ed2697dae76f
3a3b47eb0f43a9bef05fae269c2ac1a622a6fd6685663bc5023a68f50508f87384b9ff2aacd2d5ffc773c3644904e672a1fffcb69781fb6b756049d89ff95ce6
e2c9fe3868192c8ad5cb4d09bf7ab47cc17b15a794445cf5a5d6474988e42753b4efe2ea0d18955be5623ba402943431216730a788759848b8575555786c536f
4f40bc9a0008bc6ff2c645645814ad4319cd7ff7d2ec80f738be3e790e9862b4beda4a80ccdeb468d9093d5cbd568f96dabb01f0bfba6ff0cd03117045e99699
b5eb77929ba72bf1f50c7fc9d727eaa7a5f3217fba17a20fdb158728df46a129e977a1beb8492176221591d5a067b775d29a69e1ec274e48dc96444b04722c81
c12dcd0aa2ba524cb01fd34cf83d5490283f497158df2a93d8571ec36ab14a72ec153076c621b845ff53b1cb65340c2cb45135d9175bb69472bc7e4cffb871e9
4f40bc9a0008bc6ff2c645645814ad437c097a084c40326c95523f75b7d8939e153afabf42e2508eeeb0b7a6a6b86e6daf841bda901ac37b5972ed2697dae76f
3a3b47eb0f43a9bef05fae269c2ac1a622a6fd6685663bc5023a68f50508f87384b9ff2aacd2d5ffc773c3644904e672a1fffcb69781fb6b756049d89ff95ce6
0ab4009a7e533e0c26110feb6fd7f0cd2b87731748aeb052b56a028f472aff7addeb99d2b96c4453e717c8f08d4807508e0ddd53b0e6a8cf8f8777d706ef4743
4f40bc9a0008bc6ff2c645645814ad436a39f7a3c6a898afadad49c0edd72a4d915e194a6e7710d6db70b166fa35f8dd200d6d5ffc28c166aa693097f06b49c5
c30f78e7ba30c131f86d43ce214e95ab74427a15457e0acd1ad40d3b3e28cd2fcb161629a396cef098b781763f64cb7f85aaace8838a89c71766956ea31d844e
076c81b86ebd5ed9ee1d68d4e54e964af9e365217ce04c0d361a166d8b9f7728ff9202add244278ef38bc4028b2fb9f2106a18517a3c4ee104c9efecc9a34bb3
4f40bc9a0008bc6ff2c645645814ad43d9d76b39731969ef04e6930d6eac284f153afabf42e2508eeeb0b7a6a6b86e6d2ac7f5255f6b3acccae647b728b56728
850cc5dfca7143c35a7806b5e1804bd727f0c5034fe7cc479febd7840b8ace54ae5a0307c1773165f109f8e4a8135b032731769840b6f698a4f56266661f921e
47aa02fb246382caeb3d16b0867ffa69697bc131df13b6e5868ce0964e5a92ddc8af74e4a3f7a648e7c38066d237affff9233355ed21e5f079c5f0bc38778225
4f40bc9a0008bc6ff2c645645814ad43f71cc8e5689bd3f2266e7b6a3fc94f66153afabf42e2508eeeb0b7a6a6b86e6daf841bda901ac37b5972ed2697dae76f
3a3b47eb0f43a9bef05fae269c2ac1a622a6fd6685663bc5023a68f50508f87384b9ff2aacd2d5ffc773c3644904e672a1fffcb69781fb6b756049d89ff95ce6
498f85e68372419766cedec854c0b8d944f6877e7222b8d31ad6f9b6b71f5fa0947c9c87d920f92256c5b238936ce7340e8b7faf3a4ef9750dc899cd7b978889
4f40bc9a0008bc6ff2c645645814ad43cfab57739a077eb83fc46e1f515dbdfcbeda4a80ccdeb468d9093d5cbd568f96dabb01f0bfba6ff0cd03117045e99699
b5eb77929ba72bf1f50c7fc9d727eaa7a5f3217fba17a20fdb158728df46a129e977a1beb8492176221591d5a067b775d29a69e1ec274e48dc96444b04722c81
73ee7e738692e91fd88ea68d64ee66bc54b285301020e157b51d4e6f8621039c2398120f7b71f4e961820df2935357f13f50b39a01f438003e767864fb1771d9
4f40bc9a0008bc6ff2c645645814ad43b03a747717d51ff3c28cf457d603434cbeda4a80ccdeb468d9093d5cbd568f96dabb01f0bfba6ff0cd03117045e99699
b5eb77929ba72bf1f50c7fc9d727eaa7a5f3217fba17a20fdb158728df46a129e977a1beb8492176221591d5a067b775d29a69e1ec274e48dc96444b04722c81
8d1ff6cc0c3134c7d22c7cd963bbf42354b285301020e157b51d4e6f8621039c2398120f7b71f4e961820df2935357f1847fc0549279217b2aac25589daa3d9c
4f40bc9a0008bc6ff2c645645814ad4392121a0fcf9a5d3893a06f85dbfafaff153afabf42e2508eeeb0b7a6a6b86e6daf841bda901ac37b5972ed2697dae76f
3a3b47eb0f43a9bef05fae269c2ac1a622a6fd6685663bc5023a68f50508f87384b9ff2aacd2d5ffc773c3644904e672a1fffcb69781fb6b756049d89ff95ce6
c0111e99c3e2ec3a9f97e682805c176344f6877e7222b8d31ad6f9b6b71f5fa0947c9c87d920f92256c5b238936ce7346cc02febef8b47883c796d53c4ef2ea8
4f40bc9a0008bc6ff2c645645814ad43dfab913b0c1f911421c8e65164174b88153afabf42e2508eeeb0b7a6a6b86e6daf841bda901ac37b5972ed2697dae76f
3a3b47eb0f43a9bef05fae269c2ac1a622a6fd6685663bc5023a68f50508f87384b9ff2aacd2d5ffc773c3644904e672a1fffcb69781fb6b756049d89ff95ce6
b081519928fab237b9a6ef0856c9f4e53d8a97c9556faa6e77f630fb5401da2a78b2ac2d4bb05fe8748fda103c5c216e2191ab68b23513bc50f093dfd0b8a1be
4f40bc9a0008bc6ff2c645645814ad43019d7cca4136c8240a306b5e971c465f153afabf42e2508eeeb0b7a6a6b86e6daf841bda901ac37b5972ed2697dae76f
3a3b47eb0f43a9bef05fae269c2ac1a622a6fd6685663bc5023a68f50508f87384b9ff2aacd2d5ffc773c3644904e672a1fffcb69781fb6b756049d89ff95ce6
b7a0705990dd9d845b9eb592763dc4cf726dd337893458958b6d5b0e874aec422ece0397282d233caddb5ea00d4f35991402f7b0390de570748435c74680ff67
4f40bc9a0008bc6ff2c645645814ad43c8260321f248da6bf26664372055f703153afabf42e2508eeeb0b7a6a6b86e6daf841bda901ac37b5972ed2697dae76f
3a3b47eb0f43a9bef05fae269c2ac1a622a6fd6685663bc5023a68f50508f87384b9ff2aacd2d5ffc773c3644904e672a1fffcb69781fb6b756049d89ff95ce6
935a62bede3df5d3603d98d2ac8907626be3edd7de83d2f9f784bf38716d09c678b2ac2d4bb05fe8748fda103c5c216e86f641eb0821570333f6c971a2b1c0b3
4f40bc9a0008bc6ff2c645645814ad43329d35a930c5eeb33474608e7bc5cf14153afabf42e2508eeeb0b7a6a6b86e6daf841bda901ac37b5972ed2697dae76f
3a3b47eb0f43a9bef05fae269c2ac1a622a6fd6685663bc5023a68f50508f87384b9ff2aacd2d5ffc773c3644904e672a1fffcb69781fb6b756049d89ff95ce6
9fdc938442bc74a2e2ccf39dffc28fc98fb5c7aaed079994d2b1491f7a7fae2c8e8b1100aaabe24d53b283f18237defa64aed68aa66c7c625c3a7a3cc2621162
4f40bc9a0008bc6ff2c645645814ad43ab9b4ca1f69f81bd2a0e03c31f169781153afabf42e2508eeeb0b7a6a6b86e6daf841bda901ac37b5972ed2697dae76f
3a3b47eb0f43a9bef05fae269c2ac1a622a6fd6685663bc5023a68f50508f87384b9ff2aacd2d5ffc773c3644904e672a1fffcb69781fb6b756049d89ff95ce6
a3bd86f9791cc2bf91cafea83ef1afb8670f7dd3c75ffe9bab529de21d548cdc7b7dd7c8c4587711cc42291eeb6f2a4a3a19c931bcc4bd127ae480199910b922
4f40bc9a0008bc6ff2c645645814ad43d8d5632b46ad3100a0809fc765e26830915e194a6e7710d6db70b166fa35f8dd200d6d5ffc28c166aa693097f06b49c5
c30f78e7ba30c131f86d43ce214e95ab74427a15457e0acd1ad40d3b3e28cd2fcb161629a396cef098b781763f64cb7f85aaace8838a89c71766956ea31d844e
391a53fc1f2524da4520324c79cc254151b4edd6c183b75f9b6e064d44c324ba947c9c87d920f92256c5b238936ce7345a138eddf2dfa54b926ae382d37166c6
4f40bc9a0008bc6ff2c645645814ad436cb36236940a23af2cd326a02f6fe23620e60ee0b594950bea7f3f8842a2b5f9a025c8d2eb3df38bfc321dbfddf53354
6dbd1664dd062f0564868103e6f199898e923bec074fb4f750b47100f532677e0282ebc7fc9928ec03963131ed7cdf2515f3c65ba3c555ef1ff94d0f6ab0c7c3
9619cda7d792a07973bdc77e66eb2fcd26c9be6b643dff3b9618b90ee5035e014c056dd9281348acbd5342c457f13a43d482613772f65afaeb0f0215b80157c5
4f40bc9a0008bc6ff2c645645814ad43183981a316520a1c295657c9e6880d1b20e60ee0b594950bea7f3f8842a2b5f9a025c8d2eb3df38bfc321dbfddf53354
6dbd1664dd062f0564868103e6f199898e923bec074fb4f750b47100f532677e0282ebc7fc9928ec03963131ed7cdf2515f3c65ba3c555ef1ff94d0f6ab0c7c3
301058bc5b5db286634ae084a394c3cd18c1a6478fc33216c6e5a7a16dfe56be2398120f7b71f4e961820df2935357f19d5bd96273648a3e98b9adb41b233e19
4f40bc9a0008bc6ff2c645645814ad4392714fd698b0b62eedbc168e841566f620e60ee0b594950bea7f3f8842a2b5f9a025c8d2eb3df38bfc321dbfddf53354
6dbd1664dd062f0564868103e6f199898e923bec074fb4f750b47100f532677e0282ebc7fc9928ec03963131ed7cdf2515f3c65ba3c555ef1ff94d0f6ab0c7c3
be9fcf58fd8e47ee15a1478a46ea563d51b4edd6c183b75f9b6e064d44c324ba947c9c87d920f92256c5b238936ce73448c393e0d65c2e1485a4684d397b4a31
4f40bc9a0008bc6ff2c645645814ad437ba1f99155c92de50de47e36a78235b020e60ee0b594950bea7f3f8842a2b5f9a025c8d2eb3df38bfc321dbfddf53354
6dbd1664dd062f0564868103e6f199898e923bec074fb4f750b47100f532677e0282ebc7fc9928ec03963131ed7cdf2515f3c65ba3c555ef1ff94d0f6ab0c7c3
31d40a524a46c65edc8a097c35ce36770e186383691c4dba9c5e8e4a11ac877af05e6742a55d09069c458d92876341bab45135d9175bb69472bc7e4cffb871e9
4f40bc9a0008bc6ff2c645645814ad4333ff0a7d2f2aab3b2880d9be46d9e6c0153afabf42e2508eeeb0b7a6a6b86e6dd04d2df362fd58a23d4bcbd91e0a6a79
6dbd1664dd062f0564868103e6f199898e923bec074fb4f750b47100f532677e0282ebc7fc9928ec03963131ed7cdf2515f3c65ba3c555ef1ff94d0f6ab0c7c3
ce2e80a5274aa2b7afa4d53e1620efe1c2a7a7fa0f41f8351b76b21c35ed9d82f39196a4b4dfd603bbed306155f6a084b45135d9175bb69472bc7e4cffb871e9
4f40bc9a0008bc6ff2c645645814ad43a729311c375f140e66a29be6cfae32a8153afabf42e2508eeeb0b7a6a6b86e6dd04d2df362fd58a23d4bcbd91e0a6a79
6dbd1664dd062f0564868103e6f199898e923bec074fb4f750b47100f532677e0282ebc7fc9928ec03963131ed7cdf2515f3c65ba3c555ef1ff94d0f6ab0c7c3
d2b798f72974aa3b380edccfb6dbc5043e9e7a82cc3bc599472173f36ef558c4b42e74b41bca9c2e2d8e9864f5774ae5b45135d9175bb69472bc7e4cffb871e9
4f40bc9a0008bc6ff2c645645814ad4347f1ef7a70d9d917eb5181e75d7a5a84153afabf42e2508eeeb0b7a6a6b86e6dd04d2df362fd58a23d4bcbd91e0a6a79
6dbd1664dd062f0564868103e6f199898e923bec074fb4f750b47100f532677e0282ebc7fc9928ec03963131ed7cdf2515f3c65ba3c555ef1ff94d0f6ab0c7c3
d2c07515f691e09b17125e6b3255e66d2451a595bee3daa88d7f8cfac079affed3e912c3c3d25b09642d1400895b5e42f9233355ed21e5f079c5f0bc38778225
4f40bc9a0008bc6ff2c645645814ad43776e8d03d177d67b589cadb2b0cb8e91b10aae7db9b8afa9c44e2a1e7523286a5e926174d7ad6dfed72abbf4e21dfbab
850cc5dfca7143c35a7806b5e1804bd727f0c5034fe7cc479febd7840b8ace54ae5a0307c1773165f109f8e4a8135b032731769840b6f698a4f56266661f921e
2dab43c98a0da89e03bece14fbe8a3286c9cfc8c43eaf71ffa022309086abd68336e7bee9b75a4469166c346d028d50acf136c37aaa05ac3bc9fc89e78267a7d
4f40bc9a0008bc6ff2c645645814ad43e747ad1c137ce6837394fe4b9883e3f6b10aae7db9b8afa9c44e2a1e7523286a5e926174d7ad6dfed72abbf4e21dfbab
850cc5dfca7143c35a7806b5e1804bd727f0c5034fe7cc479febd7840b8ace54ae5a0307c1773165f109f8e4a8135b032731769840b6f698a4f56266661f921e
cdf4257bae8640e3c72e1895eb6573906c9cfc8c43eaf71ffa022309086abd68699c935393e86112419238564bbfd4dbcf136c37aaa05ac3bc9fc89e78267a7d
4f40bc9a0008bc6ff2c645645814ad43773afa44fcb37285b19733d4f8dd8123b10aae7db9b8afa9c44e2a1e7523286a5e926174d7ad6dfed72abbf4e21dfbab
850cc5dfca7143c35a7806b5e1804bd727f0c5034fe7cc479febd7840b8ace54ae5a0307c1773165f109f8e4a8135b032731769840b6f698a4f56266661f921e
d166df86897513833609c12274d8bcbb1509a73218acc1a3252fab8134d4a8e1bc0ba3acc0ce0744adab2c932bda63148a5f36a667e0958ae6be020b6940410e
4f40bc9a0008bc6ff2c645645814ad43b8121e14403d915318fd14111052fb4e915e194a6e7710d6db70b166fa35f8dd200d6d5ffc28c166aa693097f06b49c5
c30f78e7ba30c131f86d43ce214e95ab74427a15457e0acd1ad40d3b3e28cd2fcb161629a396cef098b781763f64cb7f85aaace8838a89c71766956ea31d844e
8e9a4ad4b9e7a7afae71b95abcb459ae0e326586b453c90690279b3e5e0b6406226a1ba88ff07d2ec4cec008dcfbd68369982864aca582f908ce05879984ab5e
4f40bc9a0008bc6ff2c645645814ad439ed034ac9823f962dde85211cb31f9b3192f8e7d65bb4d488fe7af61a0b53d9ab6344482cfa9283d80a38a31b6031591
61dcf9793dbde0f2206fa19cb6940fa769bb6b9ee374ef0e7be2be4e1b1fc3ea89c1c62f2367d85b9e71c0cb5ef27eaef185e89738591f370fb230980fb0de95
b0cab04cbb8b503b899ebde28e2040a964f53f48f285eada44c49f7e41addddd9d3203e339a2f933e94b5b65ac5691cc8a5f36a667e0958ae6be020b6940410e
4f40bc9a0008bc6ff2c645645814ad43b4d17bcee0cba026d70f4716224472a4915e194a6e7710d6db70b166fa35f8dd88abfd6b624f099953b08dac7d3dca23
61dcf9793dbde0f2206fa19cb6940fa769bb6b9ee374ef0e7be2be4e1b1fc3ea89c1c62f2367d85b9e71c0cb5ef27eaef185e89738591f370fb230980fb0de95
7e0ed17dedfb22991de717aa1baf6368dbbb5eef9c10f96170c2cace1429bac76152e4a4930e381f9703953b7e0ae9a45ac36e297fe9cca7eefef21a23006943
73868bc35516f2ba008c85256e06402f4ad700470c7f1976fb08aa78c34724be0cb403e3426e8b8c9d42b56f83b4e1166b75d70250200898f382820e25a4bde6
a852bffa3c4c37ff7d6f0c4850fc4991a5f3217fba17a20fdb158728df46a129e977a1beb8492176221591d5a067b775d29a69e1ec274e48dc96444b04722c81
d6d73940c7e0518d1a360a81150efb47c584eb7ff67e97f4446dc03c56daba6997acd2d5e16f215830726433e3958d8059dc634feda8c818bc301584fad81db2
22f315950ea606d65ae24f69b744ad92040074184e27f4a6664ffa48076534ba7127c6c3e196181df99e6654da17194cd01d7c40a7152bbe15ad89b5c097a0b9
7d4f61e61cddd958758ab7e0caffacd734a8770561f7c571767fce1bb916580905a3a74b34f60c2d516a0046ace7e420168902cdb8fa6fcf3ed09c0f98316c97
60a503c8ee3a732368ea4eef5d228d47d0a59b0a85a915d2e73e0e4d20336ad76a34019bb4d0d29490208d9f7a27081f4f5a4b560435c63190d19da6c297937b
bf4360fca14036b1cf48edad9805fe68c78806ab3e51e11a05bdeb33d4ed4680eae120e21a7b8212f995bea9ed65dd2d0e3252940cc15fee77b95a2c1995bb08
1a6927d4845433c95126164527e2adcbb6910fb8412e9e396947f167f3c6b94074427a15457e0acd1ad40d3b3e28cd2fe678ea99fea61ae0b1605351a80e133a
0aa35b19fda6a7b5a95d4371e6161c5be72dbae08fcfc4170be4faf2ef10269808efdb5507b115d36866e02203c8df30bf2a989a2afc1004e4df51ce62646a9b
a7b7bfbd14990d2a062155765a90f0796154e3cfd788c26ba0b7cb3c290cdd0d1c63e9499acf65689a6c465bdf168ad4d01d7c40a7152bbe15ad89b5c097a0b9
d1d38d927953748ba98524d268a5542d05c637df0bac1287f186b407ee5e12b85edd4e06ccfbb59d02d91b15cb8ffc06af9a4a6301dfeb8db0f5d2ee18c24db3
a9bc3ab5db149bba800bcfbc19ccf0f76592a82e02fad598be0eebe06348076b133182c434e23824058544574e607551e580561f88fdcafb3e8e235c84dddaa3
61ebc493f2a0fabb340bbcb190e8dd446b082fa21713fc7260a99f9cf466a393a130c1f906b00c05c6ef342c42624254d7d1f4d723554f39ef2a050753df626c
074df99044a8d6644a88269b442e21b72eea9b616205e16e1e6f138ed84b3c66d3516f02a15a55d6f419736f9e4831e9cf136c37aaa05ac3bc9fc89e78267a7d
9cd3659dfa0e0cc9390ec2244e222d33d3495808481bbc0ee2ad46124aa376cd4b39a3d175a5ddac037fa22eb7b0a5bbbf2a989a2afc1004e4df51ce62646a9b
7df4df7b8c091bb9eb21e9722a421e8fd64a834bf129daa2595cf92a32138f009d6d53670646cf5c0b137da2ca4d72a62add1e04f755c1b949c71f3d675275bb
57fc111a5285f6adbe7be4621d5adf6db49c24cbf8aa7f857c1c0eb8292f0a3f7564efb82dc1560c6dca8a0cc137850484f18e45a8e255529f8aff1b7d042884
dbeca183b3ba1c57e8fd9f88779b1d95b0dc9470c395c7c35f5287aba86a182258f28eb7c170db098c5fb0833e8cb944ecbb634e8250e43369fe33c03273e8f5
a2ac660cd97d1162b519c242b8c326b291b3a83b2b83c196507d8ed12888ea739bfe0fbce1feafcb6a5bc0f281db92c3ae01f2200a2eb1c980cb8c85a646fe3c
ad0208a5b1d3a150761fc557aea03dc569bb6b9ee374ef0e7be2be4e1b1fc3ea89c1c62f2367d85b9e71c0cb5ef27eaef185e89738591f370fb230980fb0de95
4203465e732d63b5380fb034156bfb03366d9eacc9155e33b54e8beeae02b789044e389f87e5a8f3e29158766ef4ff6a6098d4421db66f964a0ed934866ecf52
0a46eec38a8929f4db1e298807d99ad97a239c2217ec37eaae37a0cd1e1bc7251c63e9499acf65689a6c465bdf168ad4d01d7c40a7152bbe15ad89b5c097a0b9
1581c1031b82ce925206ad2ae42c5a7db708717bbce8524e65a4abd246d808103ffd554d9db10955db51150b05ad398b1b30ef67167651dc9c088030d33b52ab
3e58788c717b86fa8287f00345aea7d9aba7efa0b12fc9d4f4e92982a51c57a5ed686996632c518d05fe75565266f04149ddd68699e23d5fdf100088048ac524
44088277bb48c753c2c739fe9d172f27e758743f0848cbab7033ccbd0ddb2e7afcf35758a7d02250816ba94f797fda2a6098d4421db66f964a0ed934866ecf52
0a46eec38a8929f4db1e298807d99ad97a239c2217ec37eaae37a0cd1e1bc7251c63e9499acf65689a6c465bdf168ad4d01d7c40a7152bbe15ad89b5c097a0b9
614761cd789897f8e0f9c305578a17dbcf20a816d5b750e0d487840816ba617edde10b94659b9664b97323b7b2caa73808a523d41a02047340c62c2df51ea280
aba7efa0b12fc9d4f4e92982a51c57a5ed686996632c518d05fe75565266f0415400097eeaa2f0b042fd86a499a5794d345134841de5c0eceb0b9625e7368f06
841cf47a891993ef42156b49c956835692542ed1f40fc488255474ba8743f311ece972710feb79c837778dce9f62bad06098d4421db66f964a0ed934866ecf52
0a46eec38a8929f4db1e298807d99ad97a239c2217ec37eaae37a0cd1e1bc7251c63e9499acf65689a6c465bdf168ad4d01d7c40a7152bbe15ad89b5c097a0b9
ebff50e25bbd9c09569a955e6be737ad3a11d8c086a16fecb08a6c9e656f6232dde10b94659b9664b97323b7b2caa73808a523d41a02047340c62c2df51ea280
aba7efa0b12fc9d4f4e92982a51c57a5ed686996632c518d05fe75565266f0415400097eeaa2f0b042fd86a499a5794d345134841de5c0eceb0b9625e7368f06
e7530441226134a1cd68a7ab6d467922ab4b6914b24e8bb017bbdabf72f6d81c7dd09d6d861ab2eefae884e0dfb84a2184160b9d5039e4a35b9fa8c08aba3ebd
3e58788c717b86fa8287f00345aea7d92d0d0464eba5ed66dc00534fb413ecebd0a59b0a85a915d2e73e0e4d20336ad79a079aa82989cc513ad6227d9811228b
91063a08a1d759db09363982d5bfed2a4babd3f843fbda66755698f4fbb7cc995edd4e06ccfbb59d02d91b15cb8ffc06af9a4a6301dfeb8db0f5d2ee18c24db3
a9bc3ab5db149bba800bcfbc19ccf0f76592a82e02fad598be0eebe06348076b133182c434e23824058544574e607551e580561f88fdcafb3e8e235c84dddaa3